REMARK  14 active torsions:
REMARK  status: ('A' for Active; 'I' for Inactive)
REMARK    1  A    between atoms: C1_1503  and  O5_1507 
REMARK    2  A    between atoms: O5_1507  and  C6_1508 
REMARK       I    between atoms: C6_1508  and  N8_1510 
REMARK    3  A    between atoms: N8_1510  and  C9_1511 
REMARK    4  A    between atoms: C9_1511  and  C10_1512 
REMARK    5  A    between atoms: C9_1511  and  C17_1519 
REMARK    6  A    between atoms: C10_1512  and  C11_1513 
REMARK    7  A    between atoms: C17_1519  and  C19_1521 
REMARK    8  A    between atoms: C19_1521  and  C20_1522 
REMARK    9  A    between atoms: C20_1522  and  C28_1530 
REMARK   10  A    between atoms: C20_1522  and  C21_1523 
REMARK   11  A    between atoms: C21_1523  and  C22_1524 
REMARK       I    between atoms: C28_1530  and  N30_1532 
REMARK   12  A    between atoms: N30_1532  and  C31_1533 
REMARK   13  A    between atoms: C31_1533  and  C32_1534 
REMARK   14  A    between atoms: C31_1533  and  C35_1537 
ROOT
HETATM    1  C1  IM1 B 400      -9.807  15.322  33.316  0.92 10.94     0.103 C 
HETATM    2  C2  IM1 B 400      -9.610  13.820  33.442  0.92 10.94     0.030 C 
HETATM    3  C3  IM1 B 400      -8.470  16.060  33.352  0.92 10.94     0.030 C 
HETATM    4  C4  IM1 B 400     -10.614  15.729  34.536  0.92 10.94     0.030 C 
ENDROOT
BRANCH   1   5
HETATM    5  O5  IM1 B 400     -10.593  15.635  32.200  0.92 10.94    -0.289 OA
BRANCH   5   6
HETATM    6  C6  IM1 B 400     -10.292  15.365  30.858  0.92 10.94     0.383 C 
HETATM    7  N8  IM1 B 400     -11.155  15.798  29.944  0.92 10.94    -0.211 NA
HETATM    8  O7  IM1 B 400      -9.279  14.763  30.514  0.92 10.94    -0.236 OA
BRANCH   7   9
HETATM    9  C9  IM1 B 400     -10.986  15.603  28.506  0.92 10.94     0.143 C 
BRANCH   9  10
HETATM   10  C10 IM1 B 400     -12.344  15.223  27.924  0.92 10.94     0.053 C 
BRANCH  10  11
HETATM   11  C11 IM1 B 400     -12.815  13.968  28.610  0.92 10.94    -0.020 A 
HETATM   12  C16 IM1 B 400     -13.669  14.072  29.715  0.92 10.94    -0.004 A 
HETATM   13  C15 IM1 B 400     -14.030  12.921  30.411  0.92 10.94    -0.000 A 
HETATM   14  C14 IM1 B 400     -13.538  11.683  29.992  0.92 10.94    -0.000 A 
HETATM   15  C13 IM1 B 400     -12.699  11.586  28.886  0.92 10.94    -0.000 A 
HETATM   16  C12 IM1 B 400     -12.331  12.733  28.190  0.92 10.94    -0.004 A 
ENDBRANCH  10  11
ENDBRANCH   9  10
BRANCH   9  17
HETATM   17  C17 IM1 B 400     -10.388  16.807  27.726  0.92 10.94     0.175 C 
HETATM   18  O18 IM1 B 400     -11.081  18.046  28.008  0.92 10.94    -0.221 OA
BRANCH  17  19
HETATM   19  C19 IM1 B 400      -8.968  17.068  28.079  0.92 10.94     0.045 C 
BRANCH  19  20
HETATM   20  C20 IM1 B 400      -8.231  17.699  26.949  0.92 10.94     0.088 C 
BRANCH  20  21
HETATM   21  C28 IM1 B 400      -7.995  16.703  25.802  0.92 10.94     0.252 C 
HETATM   22  O29 IM1 B 400      -7.843  15.489  25.973  0.92 10.94    -0.271 OA
HETATM   23  N30 IM1 B 400      -7.959  17.259  24.602  0.92 10.94    -0.232 NA
BRANCH  23  24
HETATM   24  C31 IM1 B 400      -7.721  16.521  23.369  0.92 10.94     0.164 C 
BRANCH  24  25
HETATM   25  C32 IM1 B 400      -9.026  16.230  22.597  0.92 10.94     0.030 C 
HETATM   26  C34 IM1 B 400      -9.626  14.938  23.121  0.92 10.94     0.003 C 
HETATM   27  C33 IM1 B 400      -8.765  15.923  21.139  0.92 10.94     0.003 C 
ENDBRANCH  24  25
BRANCH  24  28
HETATM   28  C35 IM1 B 400      -6.826  17.483  22.593  0.92 10.94     0.162 A 
HETATM   29  N39 IM1 B 400      -5.865  16.957  21.881  0.92 10.94    -0.226 NA
HETATM   30  C38 IM1 B 400      -5.142  18.018  21.392  0.92 10.94     0.121 A 
HETATM   31  C37 IM1 B 400      -5.766  19.167  21.871  0.92 10.94     0.121 A 
HETATM   32  N36 IM1 B 400      -6.849  18.805  22.639  0.92 10.94    -0.226 NA
ENDBRANCH  24  28
ENDBRANCH  23  24
ENDBRANCH  20  21
BRANCH  20  33
HETATM   33  C21 IM1 B 400      -6.948  18.237  27.606  0.92 10.94     0.036 C 
BRANCH  33  34
HETATM   34  C22 IM1 B 400      -5.641  18.205  26.819  0.92 10.94    -0.022 A 
HETATM   35  C27 IM1 B 400      -4.704  17.211  27.114  0.92 10.94    -0.004 A 
HETATM   36  C26 IM1 B 400      -3.500  17.168  26.420  0.92 10.94    -0.000 A 
HETATM   37  C25 IM1 B 400      -3.238  18.110  25.437  0.92 10.94    -0.000 A 
HETATM   38  C24 IM1 B 400      -4.170  19.098  25.143  0.92 10.94    -0.000 A 
HETATM   39  C23 IM1 B 400      -5.374  19.155  25.829  0.92 10.94    -0.004 A 
ENDBRANCH  33  34
ENDBRANCH  20  33
ENDBRANCH  19  20
ENDBRANCH  17  19
ENDBRANCH   9  17
ENDBRANCH   7   9
ENDBRANCH   5   6
ENDBRANCH   1   5
TORSDOF 14
